<?xml version="1.0" encoding="utf-8"?>
<!DOCTYPE network SYSTEM "http://www.matsim.org/files/dtd/network_v1.dtd">
<network name="two-plans test network">
  <nodes>
    <node id="1" x="0" y="0"/>
    <node id="2" x="1000" y="0"/>
  </nodes>
  <links capperiod="01:00:00">
    <link id="1" from="1" to="2" length="1000.0" capacity="3600" freespeed="10.0" permlanes="1" />
    <link id="2" from="2" to="1" length="1000.0" capacity="3600" freespeed="10.0" permlanes="1" />
  </links>
</network>
